324
rcc1 MANUAL_rcc1_oplsaa.ff
C           24.951100       30.894700       24.665800
C           24.514200       29.842700       25.687200
C           25.237700       28.657200       25.853900
C           24.762900       27.631800       26.680200
C           25.556400       26.337100       26.865100
C           23.571200       27.822800       27.382800
C           22.828500       28.998200       27.226800
C           21.428200       29.097800       27.833900
C           23.319500       30.013000       26.396100
C           28.467500       33.897100       23.210800
C           28.490400       33.263500       21.814500
C           27.380000       33.403000       20.976200
C           27.288700       32.695000       19.776300
C           25.945500       32.605300       19.055800
C           28.351900       31.873800       19.388500
C           29.472700       31.721000       20.209500
C           30.506800       30.647400       19.876700
C           29.533600       32.414900       21.424300
C           21.724800       27.417300       24.479400
C           21.824800       27.316500       22.959500
C           21.990600       26.073100       22.339900
C           22.111900       25.978600       20.948000
C           22.464600       24.639700       20.298800
C           22.025000       27.142800       20.176200
C           21.863000       28.393600       20.780600
C           22.018700       29.669000       19.953000
C           21.759800       28.471100       22.172100
C           28.044400       23.287300       23.850200
C           28.411500       23.415200       22.376400
C           29.422300       24.299300       21.989800
C           29.623500       24.614100       20.642500
C           30.619500       25.707000       20.253200
C           28.790900       24.035000       19.678100
C           27.790500       23.125300       20.046200
C           26.815800       22.586300       18.996700
C           27.607000       22.823600       21.398600
C           19.068300       44.261900       24.700300
N           19.319700       42.907400       25.162600
C           18.363900       41.983800       25.560100
C           19.019800       40.821400       25.958700
N           20.385500       41.036900       25.822600
C           21.445700       40.080200       26.124300
C           21.544000       38.991500       25.035700
C           22.663200       37.978000       25.311100
O           22.669700       37.021000       24.253900
C           23.605000       36.004100       24.266400
C           24.571000       35.827700       25.268400
C           25.474900       34.770700       25.192400
C           25.431500       33.879700       24.114500
C           26.414900       32.703200       24.016500
N           26.161600       31.662400       25.011700
C           27.384800       30.869500       24.927900
C           28.506300       31.869000       24.650500
N           27.807000       33.087000       24.255800
C           24.462200       34.050300       23.122000
C           23.559300       35.107600       23.199400
C           20.557000       42.320600       25.338000
C           10.559400       18.854000       31.303700
N           10.934700       19.994100       30.484600
C           10.254100       21.199400       30.392700
C           10.960900       22.034900       29.531100
N           12.086400       21.344600       29.098900
C           13.117000       21.850300       28.197600
C           14.049600       22.846400       28.917200
C           15.150000       23.398100       28.000500
O           15.944300       24.308300       28.758000
C           16.985100       24.975500       28.141400
C           17.354300       24.804300       26.800000
C           18.417800       25.528900       26.266300
C           19.125700       26.449500       27.052800
C           20.329100       27.240500       26.487000
N           20.332100       28.635700       26.958400
C           19.957700       29.501200       25.845900
C           19.551000       28.507900       24.761200
N           20.353700       27.312100       25.014600
C           18.764400       26.594700       28.398700
C           17.702000       25.869900       28.932500
C           12.064700       20.098700       29.698300
C           24.728400       13.309200       32.923100
N           24.288600       14.622600       32.483500
C           23.564000       15.539400       33.231100
C           23.320700       16.656300       32.435100
N           23.882500       16.418300       31.186900
C           23.867900       17.327200       30.045000
C           24.870400       18.483800       30.237700
C           24.897500       19.450600       29.045900
O           25.852400       20.472200       29.324100
C           26.079400       21.461700       28.387200
C           25.418900       21.554700       27.154000
C           25.719100       22.590500       26.272100
C           26.685500       23.550500       26.602600
C           27.063700       24.729300       25.672600
N           26.091600       25.815600       25.602300
C           25.101700       25.398800       24.615000
C           25.906100       24.571900       23.613600
N           27.214100       24.428000       24.253300
C           27.336200       23.454300       27.836600
C           27.035200       22.419400       28.718000
C           24.469200       15.166800       31.227600
C           18.497500       31.876200        6.745100
N           19.535800       32.289800        7.673800
C           20.086000       33.559000        7.779400
C           21.020300       33.544800        8.812400
N           21.038100       32.264300        9.350900
C           21.859800       31.807800       10.467400
C           21.309300       32.321300       11.814100
C           22.144200       31.851800       13.013300
O           21.557000       32.380900       14.200100
C           22.140300       32.110900       15.423100
C           23.289100       31.326800       15.598900
C           23.805300       31.112300       16.874700
C           23.187300       31.678300       17.998200
C           23.704600       31.473000       19.442300
N           25.152800       31.512400       19.636100
C           25.674500       30.157800       19.459500
C           24.439400       29.273600       19.561600
N           23.396400       30.174200       20.038300
C           22.039000       32.455300       17.816000
C           21.522900       32.668600       16.540500
C           20.116200       31.507100        8.651700
C           44.177200       27.268400       22.588900
N           42.934300       28.021000       22.606900
C           42.799500       29.389400       22.423200
C           41.450800       29.715100       22.545400
N           40.755100       28.545100       22.823000
C           39.314600       28.423100       23.023300
C           38.554200       28.511600       21.684000
C           37.034700       28.378800       21.854600
O           36.432500       28.470500       20.565400
C           35.058700       28.381700       20.451000
C           34.181600       28.204800       21.530300
C           32.807600       28.127400       21.314300
C           32.283300       28.222300       20.017600
C           30.766300       28.154600       19.709900
N           29.982500       29.302400       20.161000
C           29.635700       29.026800       21.550300
C           29.556100       27.502300       21.623000
N           30.018700       27.048800       20.311200
C           33.164100       28.401000       18.946200
C           34.537300       28.478800       19.163000
C           41.675800       27.514100       22.862400
C           17.542600       12.208900       15.667300
N           17.546400       13.595200       16.103000
C           16.576000       14.216400       16.875700
C           16.939800       15.550500       17.043100
N           18.129700       15.755300       16.355900
C           18.872100       17.008800       16.267500
C           19.621400       17.309200       17.582100
C           20.431000       18.611500       17.518300
O           21.083800       18.792800       18.773100
C           21.899300       19.892200       18.960000
C           22.131100       20.881500       17.992900
C           22.974800       21.953100       18.274800
C           23.598900       22.052300       19.523700
C           24.531400       23.228200       19.858700
N           23.893200       24.550700       19.946300
C           24.316600       25.302000       18.772500
C           25.721900       24.788500       18.537500
N           25.581400       23.374800       18.845200
C           23.364400       21.068300       20.487500
C           22.520200       19.997700       20.203800
C           18.489300       14.550500       15.780300
H           24.128100       31.605100       24.571500
H           25.038000       30.422600       23.684400
H           26.150200       28.497400       25.298900
H           26.376900       26.548000       27.552900
H           24.939900       25.584500       27.360800
H           23.192800       27.033200       28.017300
H           21.401300       28.502100       28.747700
H           21.234600       30.130800       28.128600
H           22.739200       30.914000       26.255300
H           27.952600       34.857500       23.149300
H           29.489900       34.110700       23.527500
H           26.540800       33.999700       21.302000
H           25.405900       33.545600       19.182500
H           26.092000       32.444400       17.986500
H           28.265900       31.271700       18.494700
H           30.759200       30.717800       18.817200
H           31.424100       30.821200       20.442700
H           30.372500       32.256800       22.087500
H           22.324500       26.612400       24.907200
H           22.186300       28.353200       24.780400
H           22.065800       25.181800       22.947200
H           22.231500       23.850100       21.015500
H           21.837600       24.465600       19.422400
H           22.146300       27.084600       19.104100
H           21.753800       29.476200       18.911500
H           21.335100       30.429900       20.333500
H           21.682900       29.440800       22.643900
H           27.517200       22.350100       24.036600
H           28.959200       23.279500       24.445500
H           30.009000       24.795700       22.750000
H           31.491400       25.657500       20.907800
H           30.964800       25.522000       19.234300
H           28.901300       24.318800       18.640600
H           27.320000       22.565700       18.029000
H           26.553900       21.554100       19.236300
H           26.800500       22.169300       21.697400
H           19.909800       44.906800       24.953600
H           18.158800       44.649800       25.159000
H           18.943600       44.249300       23.618000
H           17.308800       42.230700       25.521500
H           18.643900       39.873300       26.328900
H           22.389900       40.619400       26.219100
H           21.250000       39.645700       27.106000
H           20.596500       38.456200       24.956300
H           21.720100       39.456000       24.063900
H           22.489800       37.482200       26.268500
H           23.625400       38.492200       25.362200
H           24.636000       36.496800       26.112700
H           26.214200       34.637600       25.969500
H           26.326500       32.256600       23.021800
H           27.335300       30.127200       24.128100
H           27.560200       30.312500       25.849300
H           29.070000       32.034800       25.569500
H           29.172600       31.461200       23.891300
H           24.406300       33.362800       22.288900
H           22.815900       35.233400       22.425700
H           21.507000       42.792600       25.125600
H           11.448000       18.297700       31.602000
H            9.909300       18.199800       30.723400
H           10.024200       19.192200       32.190900
H            9.333000       21.356200       30.943100
H           10.770100       23.048200       29.193000
H           13.683400       21.006200       27.800300
H           12.627400       22.312300       27.338700
H           13.469600       23.682500       29.311300
H           14.516000       22.360800       29.776200
H           14.699400       23.908000       27.146200
H           15.768200       22.580800       27.623100
H           16.831700       24.113000       26.156600
H           18.686500       25.370100       25.231800
H           21.199000       26.692500       26.854200
H           20.772700       30.123400       25.477800
H           19.106200       30.136600       26.092600
H           18.486300       28.267900       24.768100
H           19.719300       28.935800       23.774000
H           19.305300       27.277800       29.037300
H           17.431600       26.003000       29.970100
H           12.811600       19.326000       29.573600
H           25.713600       13.400100       33.379400
H           24.792500       12.630900       32.072200
H           24.030500       12.909100       33.658500
H           23.290300       15.320900       34.257300
H           22.799400       17.585900       32.638600
H           24.099200       16.760800       29.141200
H           22.850700       17.699300       29.912300
H           24.623900       19.045100       31.140300
H           25.873700       18.081100       30.387700
H           23.908100       19.888300       28.897200
H           25.172900       18.911900       28.136700
H           24.670500       20.834000       26.861600
H           25.192800       22.630800       25.333100
H           28.012700       25.137200       26.029800
H           24.610200       26.257800       24.156800
H           24.300000       24.818300       25.074600
H           25.419300       23.616500       23.415500
H           25.999400       25.092600       22.659200
H           28.081100       24.185000       28.118900
H           27.548400       22.358300       29.666900
H           24.990600       14.688000       30.409500
H           18.964900       31.515500        5.829300
H           17.852100       32.721500        6.506600
H           17.903000       31.073100        7.180600
H           19.768200       34.355000        7.115300
H           21.664300       34.321500        9.211700
H           21.897400       30.717200       10.454400
H           22.884700       32.143900       10.301800
H           21.278300       33.412000       11.813100
H           20.280400       31.982100       11.945800
H           23.172800       32.204100       12.910300
H           22.159400       30.760500       13.053100
H           23.795700       30.875600       14.759400
H           24.690200       30.505700       16.974000
H           23.262400       32.255700       20.063700
H           26.388100       29.915700       20.248600
H           26.174700       30.009500       18.501900
H           24.170400       28.829800       18.601600
H           24.580700       28.429200       20.237600
H           21.539800       32.897700       18.666500
H           20.635800       33.272700       16.416300
H           44.096500       26.395400       23.236700
H           45.000000       27.899100       22.925400
H           44.375900       26.937300       21.570100
H           43.667300       30.006800       22.219200
H           40.928800       30.663200       22.467000
H           39.107200       27.476100       23.524800
H           38.994900       29.203900       23.715400
H           38.770700       29.462100       21.193700
H           38.903500       27.728200       21.009100
H           36.662300       29.174000       22.503900
H           36.793800       27.419200       22.317100
H           34.545800       28.125600       22.543200
H           32.163800       27.990700       22.167100
H           30.657800       28.074500       18.625300
H           28.699000       29.512500       21.827700
H           30.385400       29.424700       22.236000
H           30.169900       27.128700       22.443100
H           28.531300       27.173400       21.802700
H           32.786800       28.482400       17.936600
H           35.204400       28.616600       18.324300
H           41.450000       26.474300       23.058200
H           18.064300       12.113800       14.714900
H           16.517500       11.854400       15.560100
H           18.053200       11.601600       16.414000
H           15.720200       13.658800       17.239500
H           16.462800       16.365500       17.577500
H           19.569000       16.946800       15.429900
H           18.172800       17.807700       16.015700
H           18.912800       17.375600       18.409200
H           20.297100       16.485200       17.818200
H           19.767500       19.454100       17.312300
H           21.167100       18.551800       16.713700
H           21.668400       20.836600       17.018800
H           23.150000       22.709200       17.523200
H           24.971100       23.044700       20.839500
H           24.294300       26.377300       18.939900
H           23.659300       25.129800       17.918100
H           26.086100       24.952000       17.522600
H           26.440700       25.289900       19.187300
H           23.835300       21.130000       21.458400
H           22.345900       19.240600       20.954700
H           19.369800       14.378500       15.175700
H           19.884300       30.466900        8.837400
