         324
  Built with Packmol                                             
  C           13.687790       16.308408       20.227878
  C           13.553323       15.818029       18.784863
  C           13.212939       14.490557       18.504490
  C           13.230192       14.002501       17.192562
  C           12.854185       12.551712       16.886117
  C           13.546972       14.873717       16.148096
  C           13.895977       16.203820       16.406022
  C           14.444743       17.077489       15.276911
  C           13.872830       16.674199       17.724798
  C           11.497894       16.913043       24.509848
  C           12.571434       16.083754       25.224982
  C           13.881326       16.567634       25.297357
  C           14.920085       15.767959       25.777835
  C           16.367650       16.189998       25.537437
  C           14.629515       14.480694       26.240081
  C           13.327118       13.977044       26.179424
  C           13.079255       12.498429       26.470969
  C           12.302939       14.782102       25.665728
  C           16.891808       14.834303       17.050244
  C           17.869267       14.399977       18.139368
  C           18.462920       13.133807       18.096622
  C           19.337752       12.719997       19.108778
  C           19.842851       11.276993       19.142294
  C           19.644704       13.605796       20.147878
  C           19.056887       14.873485       20.206869
  C           19.205290       15.727663       21.465506
  C           18.173641       15.264021       19.196776
  C           13.859125        8.157126       18.949793
  C           14.564592        7.800221       20.252921
  C           13.908833        7.998302       21.470933
  C           14.601369        7.905609       22.681965
  C           13.908687        8.288997       23.990096
  C           15.970577        7.616693       22.660917
  C           16.637533        7.388074       21.449820
  C           18.154198        7.184512       21.432472
  C           15.926079        7.484542       20.250567
  C           14.642376       30.568559       23.232441
  N           14.473406       29.380151       22.413461
  C           15.092577       29.124149       21.198683
  C           14.637914       27.894541       20.727931
  N           13.722009       27.400236       21.648191
  C           13.000958       26.134609       21.555462
  C           13.921442       24.940457       21.882099
  C           13.190128       23.592838       21.813260
  O           14.122804       22.561474       22.129434
  C           13.698233       21.246790       22.148748
  C           12.387927       20.832588       21.866241
  C           12.054403       19.481074       21.913488
  C           13.020462       18.525951       22.248303
  C           12.674163       17.029823       22.298407
  N           12.426068       16.456215       20.976563
  C           11.811959       15.176864       21.320165
  C           10.977935       15.442481       22.572189
  N           11.447302       16.741182       23.042724
  C           14.328046       18.938639       22.519626
  C           14.659856       20.290209       22.472050
  C           13.626342       28.321743       22.674742
  C           22.132235       14.180494        2.330265
  N           22.152870       14.815678        3.637062
  C           22.408153       16.154402        3.896020
  C           22.296790       16.362143        5.268762
  N           21.961689       15.148444        5.855878
  C           21.727764       14.911395        7.276898
  C           20.355308       15.461250        7.717131
  C           20.072031       15.227224        9.207292
  O           18.791151       15.777037        9.507683
  C           18.320317       15.729644       10.805638
  C           19.005477       15.141802       11.878004
  C           18.449396       15.149098       13.155358
  C           17.207072       15.754789       13.394063
  C           16.558973       15.745812       14.799008
  N           15.911173       17.032097       15.106638
  C           16.719320       17.732076       16.098530
  C           17.968573       16.861443       16.198480
  N           17.516717       15.504475       15.893620
  C           16.519461       16.317487       12.310722
  C           17.074752       16.309514       11.033788
  C           21.866175       14.210474        4.844391
  C           12.417853        2.989217        6.139981
  N           12.713204        4.236855        6.823984
  C           12.501679        5.515424        6.329018
  C           12.945642        6.430602        7.280660
  N           13.448785        5.712040        8.358055
  C           14.014430        6.271616        9.581644
  C           12.910171        6.821426       10.508026
  C           13.466592        7.400812       11.815899
  O           12.369844        7.874648       12.594049
  C           12.609161        8.428406       13.836829
  C           13.880769        8.579689       14.407633
  C           14.020859        9.149013       15.671356
  C           12.895312        9.574950       16.390022
  C           12.979516       10.219974       17.795140
  N           13.452482       11.600227       17.829400
  C           14.909157       11.520838       17.815903
  C           15.214586       10.231006       18.575292
  N           13.901056        9.609796       18.747118
  C           11.630784        9.425763       15.811979
  C           11.491380        8.857493       14.548603
  C           13.304650        4.368468        8.064518
  C           30.050273       16.688913       30.020127
  N           28.599913       16.730880       30.099552
  C           27.844751       17.575801       30.899914
  C           26.497623       17.321733       30.653129
  N           26.423595       16.323250       29.690045
  C           25.203147       15.760728       29.120631
  C           24.560936       16.729243       28.105802
  C           23.278589       16.165628       27.478510
  O           22.766134       17.133428       26.565275
  C           21.597119       16.865433       25.879381
  C           20.858201       15.680420       26.002692
  C           19.687580       15.502407       25.269141
  C           19.230665       16.503998       24.401628
  C           17.943742       16.366587       23.553030
  N           16.789227       15.747298       24.201083
  C           16.861260       14.303548       23.980413
  C           17.865844       14.156246       22.846032
  N           18.063701       15.519415       22.367706
  C           19.975214       17.681427       24.279874
  C           21.145845       17.858425       25.012713
  C           27.718621       15.976867       29.350846
  C            2.468696        3.615445       30.234231
  N            3.150411        4.856694       29.908508
  C            3.046747        6.056387       30.597295
  C            3.832811        7.003212       29.944891
  N            4.408460        6.388390       28.840091
  C            5.311538        7.011142       27.877452
  C            6.725671        7.185298       28.468775
  C            7.706648        7.830646       27.480427
  O            8.975435        7.941922       28.121432
  C           10.035954        8.499085       27.433561
  C            9.965089        8.979549       26.118411
  C           11.091506        9.526496       25.508036
  C           12.310011        9.601843       26.197163
  C           13.596111       10.207241       25.580728
  N           13.571458       11.653275       25.371790
  C           12.943427       11.857333       24.071668
  C           13.308799       10.604402       23.276439
  N           13.974977        9.736116       24.247400
  C           12.372539        9.122716       27.509476
  C           11.246049        8.576651       28.119041
  C            3.979315        5.073917       28.826019
  C           29.335132        2.068151       14.112831
  N           28.712912        3.339380       14.442216
  C           28.726230        4.487148       13.663061
  C           28.044778        5.488827       14.350418
  N           27.625791        4.960400       15.565023
  C           26.870335        5.661802       16.598248
  C           25.389146        5.821044       16.197517
  C           24.558556        6.537011       17.271305
  O           23.213276        6.628529       16.807207
  C           22.257402        7.217485       17.612246
  C           22.513746        7.762814       18.878988
  C           21.480659        8.333274       19.618535
  C           20.178773        8.367032       19.105655
  C           19.023166        8.994896       19.902450
  N           19.100262       10.449191       20.109963
  C           19.417572       10.658443       21.516041
  C           18.712005        9.501517       22.192409
  N           18.935690        8.418954       21.248486
  C           19.925297        7.826878       17.842271
  C           20.959712        7.257157       17.104200
  C           28.044937        3.643460       15.611464
  H           14.160868       17.290895       20.185387
  H           14.399022       15.668815       20.755748
  H           12.985021       13.808495       19.310133
  H           11.766378       12.476500       16.928376
  H           13.129253       12.299555       15.859982
  H           13.570417       14.503643       15.132350
  H           13.988159       16.760823       14.337833
  H           14.138911       18.112593       15.439527
  H           14.162349       17.694838       17.931796
  H           11.674201       17.968989       24.722373
  H           10.517963       16.670447       24.924707
  H           14.109514       17.543502       24.894784
  H           16.439218       17.277707       25.593583
  H           17.023136       15.771042       26.302660
  H           15.433461       13.829637       26.554080
  H           13.599537       12.228898       27.391763
  H           12.014394       12.321180       26.634239
  H           11.305601       14.377305       25.565531
  H           16.372767       13.943386       16.693338
  H           16.145566       15.474796       17.511096
  H           18.210786       12.454753       17.294003
  H           19.709119       10.853799       18.145055
  H           20.913467       11.254082       19.353891
  H           20.295577       13.286249       20.948973
  H           20.137807       15.483272       21.978099
  H           19.248988       16.780651       21.182016
  H           17.681635       16.224208       19.266029
  H           14.323389        7.643177       18.106382
  H           12.818993        7.831371       19.007338
  H           12.868920        8.293448       21.468975
  H           12.868476        7.959733       23.963477
  H           14.396600        7.764464       24.813759
  H           16.525341        7.602008       23.588903
  H           18.457619        6.735003       22.379553
  H           18.419085        6.473090       20.648157
  H           16.443785        7.368347       19.309126
  H           13.730458       30.769075       23.794916
  H           14.879409       31.425466       22.601895
  H           15.461758       30.403470       23.931326
  H           15.799777       29.831583       20.780244
  H           14.874923       27.335348       19.828836
  H           12.148710       26.164284       22.236659
  H           12.578994       26.049958       20.552664
  H           14.764711       24.918740       21.189978
  H           14.343414       25.062107       22.881252
  H           12.783325       23.440255       20.811397
  H           12.360584       23.583882       22.523626
  H           11.616280       21.541256       21.607179
  H           11.044247       19.167731       21.690856
  H           13.511182       16.493118       22.754521
  H           12.559987       14.406914       21.522083
  H           11.199409       14.798265       20.500751
  H            9.924927       15.496918       22.292868
  H           11.118403       14.625261       23.278631
  H           15.090100       18.212085       22.767074
  H           15.672311       20.599931       22.686729
  H           12.992768       28.230419       23.546890
  H           21.439532       13.338937        2.333137
  H           23.132503       13.816044        2.097895
  H           21.830059       14.900829        1.570167
  H           22.645901       16.837092        3.087712
  H           22.419890       17.254022        5.874477
  H           21.797070       13.839798        7.471932
  H           22.540706       15.370988        7.841486
  H           20.299569       16.531856        7.513484
  H           19.564105       14.992544        7.129313
  H           20.843282       15.710121        9.811319
  H           20.085334       14.157778        9.427950
  H           19.967642       14.672257       11.741119
  H           18.995326       14.680482       13.961563
  H           15.831009       14.933901       14.746712
  H           16.249889       17.803037       17.079067
  H           17.000307       18.731323       15.763570
  H           18.766372       17.165561       15.518580
  H           18.414993       16.952437       17.187630
  H           15.549637       16.770326       12.456958
  H           16.533969       16.757550       10.212652
  H           21.608592       13.167704        4.973840
  H           11.398811        2.686902        6.379252
  H           13.105654        2.209741        6.467971
  H           12.505581        3.125088        5.062112
  H           12.053587        5.661740        5.352522
  H           12.955171        7.515587        7.286893
  H           14.594394        5.497684       10.087444
  H           14.729013        7.049564        9.307910
  H           12.342865        7.598010        9.992674
  H           12.200871        6.027331       10.747993
  H           14.157045        8.218496       11.598476
  H           14.012779        6.628478       12.361672
  H           14.771622        8.262106       13.887507
  H           15.012658        9.249236       16.079556
  H           11.978033       10.186779       18.231608
  H           15.360139       12.400419       18.276721
  H           15.297826       11.497310       16.796433
  H           15.913826        9.606224       18.018770
  H           15.669634       10.443738       19.543996
  H           10.746835        9.751584       16.342042
  H           10.506983        8.747670       14.116838
  H           13.603019        3.547989        8.703412
  H           30.424512       15.976028       30.754291
  H           30.464318       17.673635       30.236564
  H           30.362356       16.371122       29.025303
  H           28.327542       18.277844       31.570504
  H           25.594740       17.758221       31.067519
  H           25.442074       14.806429       28.648172
  H           24.517533       15.526538       29.936655
  H           24.326791       17.677711       28.591778
  H           25.272917       16.955991       27.310374
  H           22.544405       15.955909       28.259365
  H           23.497810       15.231854       26.956247
  H           21.174863       14.886410       26.661674
  H           19.143349       14.580234       25.388641
  H           17.650899       17.370599       23.236011
  H           15.886665       13.911517       23.685468
  H           17.190716       13.748606       24.859440
  H           18.805370       13.715005       23.182952
  H           17.510088       13.499367       22.051109
  H           19.648027       18.466544       23.612934
  H           21.708978       18.774589       24.908630
  H            2.294211        3.034481       29.328514
  H            1.517176        3.829166       30.721004
  H            3.093623        3.035820       30.912880
  H            2.430910        6.130454       31.486753
  H            4.028370        8.048676       30.160030
  H            5.341781        6.398396       26.974704
  H            4.885687        7.969019       27.574166
  H            6.680684        7.798909       29.369982
  H            7.119807        6.214463       28.774311
  H            7.343165        8.817553       27.186302
  H            7.789597        7.215398       26.581895
  H            9.046238        8.937999       25.553728
  H           11.000293        9.885261       24.496403
  H           14.421569        9.976170       26.258792
  H           13.298640       12.775142       23.600805
  H           11.862657       11.975615       24.163896
  H           12.414179       10.153545       22.846007
  H           13.983152       10.847496       22.453738
  H           13.297828        9.173055       28.065874
  H           11.311180        8.210491       29.133493
  H            4.250200        4.330102       28.088545
  H           29.633508        1.549523       15.024027
  H           30.208974        2.232786       13.482524
  H           28.617230        1.451959       13.572451
  H           29.211950        4.490125       12.693665
  H           27.827326        6.519918       14.091763
  H           26.960839        5.110562       17.535815
  H           27.342018        6.629898       16.774233
  H           25.312878        6.379562       15.263248
  H           24.950478        4.839621       16.008654
  H           24.964026        7.534482       17.453756
  H           24.598824        5.975548       18.207214
  H           23.504666        7.752793       19.306721
  H           21.686347        8.748529       20.594517
  H           18.097569        8.821661       19.352689
  H           19.067519       11.622843       21.879613
  H           20.494152       10.655970       21.696776
  H           19.102012        9.267142       23.183549
  H           17.652725        9.716074       22.341427
  H           18.926836        7.846737       17.428893
  H           20.754099        6.840478       16.128734
  H           27.875722        2.956427       16.429851
  H           28.000677       15.233625       28.617146
